LTspice 24.0.11 for Windows
Circuit: * D:\Ala\Desktop\ELA2_doZipu\Projekt\UkladCyfrowy\AlicjaMisterka_325045_UkladCyfrowy.asc
Start Time: Sat May 25 14:45:55 2024
solver = Normal
Maximum thread count: 8



trtol = 500
c1: Increased Cpar to 9.7e-13
c3: Increased Cpar to 9.8e-13
c4: Increased Cpar to 9.8e-11
c6: Increased Cpar to 9.3e-12
c2: Increased Cpar to 9.7e-16
c5: Increased Cpar to 9.8e-16
Direct Newton iteration for .op point succeeded.
Ignoring empty pin current: Ix(u2:6)
Ignoring empty pin current: Ix(u2:8)
Ignoring empty pin current: Ix(u2:10)
Ignoring empty pin current: Ix(u2:11)
Ignoring empty pin current: Ix(u2:6)
Ignoring empty pin current: Ix(u2:8)
Ignoring empty pin current: Ix(u2:10)
Ignoring empty pin current: Ix(u2:11)
.step iwy=0



.step iwy=0.55



.step iwy=1.1



.step iwy=1.65



.step iwy=2.2



.step iwy=2.75



.step iwy=3.3



.step iwy=3.85



.step iwy=4.4



.step iwy=4.95
tnom = 27
temp = 27
method = Gear
.step iwy=5.5


Measurement: pin
  step	AVG(-v(in)*i(v1))	FROM	TO
     1	2.87698e-05	0	0.001
     2	1.47326	0	0.001
     3	2.92731	0	0.001
     4	4.40634	0	0.001
     5	5.9176	0	0.001
     6	7.45872	0	0.001
     7	9.03181	0	0.001
     8	10.6311	0	0.001
     9	12.2698	0	0.001
    10	13.9386	0	0.001
    11	15.6276	0	0.001

Measurement: pout
  step	AVG(v(out)*i(iload))	FROM	TO
     1	0	0	0.001
     2	1.40243	0	0.001
     3	2.80256	0	0.001
     4	4.2017	0	0.001
     5	5.60133	0	0.001
     6	7.00061	0	0.001
     7	8.39947	0	0.001
     8	9.79788	0	0.001
     9	11.1959	0	0.001
    10	12.5935	0	0.001
    11	13.9904	0	0.001

Measurement: eff
  step	(pout/pin)*100
     1	0
     2	95.1923
     3	95.7384
     4	95.3556
     5	94.6554
     6	93.8581
     7	92.9987
     8	92.1621
     9	91.2471
    10	90.3494
    11	89.5238

Measurement: vout_avg
  step	AVG(v(out))	FROM	TO
     1	2.56562	0	0.001
     2	2.54987	0	0.001
     3	2.54778	0	0.001
     4	2.54648	0	0.001
     5	2.54606	0	0.001
     6	2.54568	0	0.001
     7	2.54529	0	0.001
     8	2.5449	0	0.001
     9	2.54452	0	0.001
    10	2.54413	0	0.001
    11	2.54372	0	0.001

Measurement: vout_pp
  step	PP(v(out)*1000)	FROM	TO
     1	0.0402927	0	0.001
     2	5.60832	0	0.001
     3	5.73778	0	0.001
     4	5.91207	0	0.001
     5	6.08611	0	0.001
     6	6.38008	0	0.001
     7	6.75774	0	0.001
     8	7.2093	0	0.001
     9	7.73168	0	0.001
    10	8.3313	0	0.001
    11	9.05919	0	0.001

Measurement: vin_pp
  step	PP(v(in)*1000)	FROM	TO
     1	0	0	0.001
     2	113.912	0	0.001
     3	201.171	0	0.001
     4	258.692	0	0.001
     5	337.558	0	0.001
     6	423.085	0	0.001
     7	508.693	0	0.001
     8	567.796	0	0.001
     9	679.46	0	0.001
    10	761.095	0	0.001
    11	849.452	0	0.001

Total elapsed time: 433.612 seconds.

