LTspice 24.0.11 for Windows
Circuit: * D:\Ala\Desktop\ELA2_doZipu\Projekt\UkladAnalogowy1\AlicjaMisterka_325045_UkladAnalogowy1.asc
Start Time: Wed May 29 18:52:11 2024
solver = Normal
Maximum thread count: 8



c2: Increased Cpar to 4.4e-12
c3: Increased Cpar to 4.23e-12
c1: Increased Cpar to 9.3e-13
Direct Newton iteration failed to find .op point.  (Use ".option noopiter" to skip.)
Starting Gmin stepping
Gmin = 10
Gmin = 1.07374
Gmin = 0.115292
Gmin = 0.0123794
Gmin = 0.00132923
Gmin = 0.000142725
Gmin = 1.5325e-05
Gmin = 1.6455e-06
Gmin = 1.76685e-07
Gmin = 1.89714e-08
Gmin = 2.03704e-09
Gmin = 2.18725e-10
Gmin = 2.34854e-11
Gmin = 2.52173e-12
Gmin = 2.70769e-13
Gmin = 0
Gmin stepping succeeded in finding the operating point.

Ignoring empty pin current: Ix(u1:2)
Ignoring empty pin current: Ix(u1:2)
.step iwy=0



.step iwy=0.02



.step iwy=0.04



.step iwy=0.06



.step iwy=0.08



.step iwy=0.1



.step iwy=0.12



.step iwy=0.14



.step iwy=0.16



.step iwy=0.18
tnom = 27
temp = 27
method = modified trap
.step iwy=0.2


Measurement: pin
  step	AVG(-v(in)*i(v1))	FROM	TO
     1	0.0210302	0	8
     2	0.225767	0	8
     3	0.430423	0	8
     4	0.634997	0	8
     5	0.83949	0	8
     6	1.0439	0	8
     7	1.24823	0	8
     8	1.45248	0	8
     9	1.65665	0	8
    10	1.86073	0	8
    11	2.06474	0	8

Measurement: pout
  step	AVG(v(out)*i(iload))	FROM	TO
     1	0	0	8
     2	0.141936	0	8
     3	0.283871	0	8
     4	0.425807	0	8
     5	0.567743	0	8
     6	0.709679	0	8
     7	0.851614	0	8
     8	0.99355	0	8
     9	1.13549	0	8
    10	1.27742	0	8
    11	1.41936	0	8

Measurement: eff
  step	(pout/pin)*100
     1	0
     2	62.8683
     3	65.9518
     4	67.0566
     5	67.6295
     6	67.9833
     7	68.2257
     8	68.4037
     9	68.5412
    10	68.6516
    11	68.7428

Measurement: vout_avg
  step	AVG(v(out))	FROM	TO
     1	7.09685	0	8
     2	7.09679	0	8
     3	7.09679	0	8
     4	7.09679	0	8
     5	7.09679	0	8
     6	7.09679	0	8
     7	7.09679	0	8
     8	7.09678	0	8
     9	7.09678	0	8
    10	7.09678	0	8
    11	7.09678	0	8

Measurement: vout_pp
  step	PP(v(out)*1000)	FROM	TO
     1	0.000953674	0	8
     2	0.000476837	0	8
     3	0	0	8
     4	0	0	8
     5	0.000476837	0	8
     6	0.000476837	0	8
     7	0.000476837	0	8
     8	0.000953674	0	8
     9	0.000476837	0	8
    10	0.000476837	0	8
    11	0.000953674	0	8

Measurement: vin_pp
  step	PP(v(in)*1000)	FROM	TO
     1	0	0	8
     2	0.000953674	0	8
     3	0.000953674	0	8
     4	0	0	8
     5	0.0190735	0	8
     6	0.000953674	0	8
     7	0	0	8
     8	0.000953674	0	8
     9	0	0	8
    10	0	0	8
    11	0	0	8

Total elapsed time: 2.736 seconds.

