LTspice 24.0.11 for Windows
Circuit: * D:\Ala\Desktop\ELA2_doZipu\Projekt\UkladAnalogowy_DodatnieNapiecieWyjsciowe\AlicjaMisterka_325045_UkladAnalogowy2.asc
Start Time: Thu May 30 18:40:55 2024
solver = Normal
Maximum thread count: 8



trtol = 10
c1: Increased Cpar to 3.81e-12
c4: Increased Cpar to 3.76e-12
c5: Increased Cpar to 9.8e-13
c6: Increased Cpar to 7.14e-11
c2: Increased Cpar to 7.14e-11
c7: Increased Cpar to 3.81e-12
Direct Newton iteration for .op point succeeded.
.step iwy=0



.step iwy=0.045



.step iwy=0.09



.step iwy=0.135



.step iwy=0.18



.step iwy=0.225



.step iwy=0.27



.step iwy=0.315



.step iwy=0.36



.step iwy=0.405
tnom = 27
temp = 27
method = Gear
.step iwy=0.45


Measurement: pin
  step	AVG(-v(in)*i(v1))	FROM	TO
     1	8.26801e-05	0	0.001
     2	2.05149	0	0.001
     3	4.04779	0	0.001
     4	5.71871	0	0.001
     5	7.59589	0	0.001
     6	9.13757	0	0.001
     7	10.8409	0	0.001
     8	12.5650	0	0.001
     9	14.3205	0	0.001
    10	14.385	0	0.001
    11	14.451	0	0.001

Measurement: pout
  step	AVG(v(out)*i(iload))	FROM	TO
     1	0	0	0.001
     2	0.854998	0	0.001
     3	1.70999	0	0.001
     4	2.565	0	0.001
     5	3.42002	0	0.001
     6	4.27504	0	0.001
     7	5.13004	0	0.001
     8	5.98503	0	0.001
     9	6.84002	0	0.001
    10	7.695	0	0.001
    11	8.54397	0	0.001

Measurement: eff
  step	(pout/pin)*100
     1	0
     2	41.677
     3	42.245
     4	44.8528
     5	45.0246
     6	46.734
     7	47.3213
     8	47.6324
     9	47.7639
    10	53.4932
    11	59.1238

Measurement: vout_avg
  step	AVG(v(out))	FROM	TO
     1	19.0706	0	0.001
     2	18.9999	0	0.001
     3	18.9999	0	0.001
     4	19	0	0.001
     5	19.0001	0	0.001
     6	19.0002	0	0.001
     7	19.0001	0	0.001
     8	19.0001	0	0.001
     9	19	0	0.001
    10	19	0	0.001
    11	18.9866	0	0.001

Measurement: vout_pp
  step	PP(v(out)*1000)	FROM	TO
     1	29.1157	0	0.001
     2	0.00572205	0	0.001
     3	0.614166	0	0.001
     4	0.699997	0	0.001
     5	0.667572	0	0.001
     6	0.411987	0	0.001
     7	0.413895	0	0.001
     8	0.425339	0	0.001
     9	0.419617	0	0.001
    10	0.427246	0	0.001
    11	0.291189	0	0.001

Measurement: vin_pp
  step	PP(v(in)*1000)	FROM	TO
     1	0	0	0.001
     2	0	0	0.001
     3	137.959	0	0.001
     4	151.999	0	0.001
     5	145.651	0	0.001
     6	22.646	0	0.001
     7	17.8728	0	0.001
     8	17.396	0	0.001
     9	16.9115	0	0.001
    10	16.552	0	0.001
    11	15.9702	0	0.001

Total elapsed time: 751.224 seconds.

